/*--------------------------------*- C++ -*----------------------------------*\ 
| =========                 |                                                 | 
| \\      /  F ield         | OpenFOAM: The Open Source CFD Toolbox           | 
|  \\    /   O peration     | Version:  3.0.x                                 | 
|   \\  /    A nd           | Web:      www.OpenFOAM.com                      | 
|    \\/     M anipulation  |                                                 | 
\*---------------------------------------------------------------------------*/ 
FoamFile                                                                        
{                                                                               
    version     2.0;                                                            
    format      ascii;                                                          
    class       dictionary;                                                     
    object      blockMeshDict;                                                  
}                                                                               
// * * * * * * * * * * * * * * * * * * * * * * * * * * * * * * * * * * * * * // 

convertToMeters 1.000000; 

vertices 
( 
    (-12.271720 0.500000 -10.297196)
    (-0.019593 0.500000 16.000000)
    (0.574533 0.500000 16.000000)
    (8.000000 0.500000 16.000000)
    (-0.191511 0.500000 -0.160697)
    (-0.019593 0.500000 0.158184)
    (0.170512 0.500000 -0.068373)
    (0.574533 0.500000 0.482091)
    (8.000000 0.500000 0.482091)
    (0.170512 0.500000 -16.000000)
    (0.574533 0.500000 -16.000000)
    (8.000000 0.500000 -16.000000)
    (-12.271720 -0.500000 -10.297196)
    (-0.019593 -0.500000 16.000000)
    (0.574533 -0.500000 16.000000)
    (8.000000 -0.500000 16.000000)
    (-0.191511 -0.500000 -0.160697)
    (-0.019593 -0.500000 0.158184)
    (0.170512 -0.500000 -0.068373)
    (0.574533 -0.500000 0.482091)
    (8.000000 -0.500000 0.482091)
    (0.170512 -0.500000 -16.000000)
    (0.574533 -0.500000 -16.000000)
    (8.000000 -0.500000 -16.000000)
); 

blocks 
( 
    hex (4 5 1 0 16 17 13 12)     (-3 240 1) edgeGrading (1 0.020000 0.020000 1 80.000000 80.000000 80.000000 80.000000 1 1 1 1) 
    hex (5 7 2 1 17 19 14 13)     (203 240 1) simpleGrading (1 80.000000 1) 
    hex (7 8 3 2 19 20 15 14)     (75 240 1) simpleGrading (800.000000 80.000000 1) 
    hex (16 18 21 12 4 6 9 0)     (-3 240 1) edgeGrading (1 0.020000 0.020000 1 80.000000 80.000000 80.000000 80.000000 1 1 1 1) 
    hex (18 19 22 21 6 7 10 9)    (203 240 1) simpleGrading (1 80.000000 1) 
    hex (19 20 23 22 7 8 11 10)   (75 240 1) simpleGrading (800.000000 80.000000 1) 
); 

edges 
( 
    spline 4 5 
        ( 
            (-0.193880 0.500000 -0.157594) 
            (-0.195108 0.500000 -0.155726) 
            (-0.196169 0.500000 -0.153901) 
            (-0.197053 0.500000 -0.152163) 
            (-0.197830 0.500000 -0.150413) 
            (-0.198494 0.500000 -0.148672) 
            (-0.199094 0.500000 -0.146852) 
            (-0.199627 0.500000 -0.144989) 
            (-0.200103 0.500000 -0.143052) 
            (-0.200519 0.500000 -0.141063) 
            (-0.200883 0.500000 -0.138980) 
            (-0.201192 0.500000 -0.136838) 
            (-0.201452 0.500000 -0.134615) 
            (-0.201662 0.500000 -0.132311) 
            (-0.201811 0.500000 -0.129955) 
            (-0.201909 0.500000 -0.127505) 
            (-0.201946 0.500000 -0.125003) 
            (-0.201933 0.500000 -0.122421) 
            (-0.201858 0.500000 -0.119787) 
            (-0.201727 0.500000 -0.117066) 
            (-0.201540 0.500000 -0.114285) 
            (-0.201291 0.500000 -0.111439) 
            (-0.200981 0.500000 -0.108542) 
            (-0.200607 0.500000 -0.105565) 
            (-0.200172 0.500000 -0.102537) 
            (-0.199674 0.500000 -0.099443) 
            (-0.199114 0.500000 -0.096284) 
            (-0.198492 0.500000 -0.093073) 
            (-0.197794 0.500000 -0.089798) 
            (-0.197041 0.500000 -0.086464) 
            (-0.196212 0.500000 -0.083080) 
            (-0.195323 0.500000 -0.079644) 
            (-0.194356 0.500000 -0.076144) 
            (-0.193322 0.500000 -0.072600) 
            (-0.192219 0.500000 -0.068999) 
            (-0.191049 0.500000 -0.065353) 
            (-0.189795 0.500000 -0.061651) 
            (-0.188480 0.500000 -0.057898) 
            (-0.187083 0.500000 -0.054102) 
            (-0.185617 0.500000 -0.050248) 
            (-0.184071 0.500000 -0.046366) 
            (-0.182448 0.500000 -0.042420) 
            (-0.180757 0.500000 -0.038429) 
            (-0.178986 0.500000 -0.034411) 
            (-0.177125 0.500000 -0.030343) 
            (-0.175197 0.500000 -0.026231) 
            (-0.173179 0.500000 -0.022071) 
            (-0.171081 0.500000 -0.017882) 
            (-0.168908 0.500000 -0.013657) 
            (-0.166646 0.500000 -0.009383) 
            (-0.164304 0.500000 -0.005081) 
            (-0.161873 0.500000 -0.000744) 
            (-0.159360 0.500000 0.003636) 
            (-0.156767 0.500000 0.008044) 
            (-0.154079 0.500000 0.012479) 
            (-0.151303 0.500000 0.016950) 
            (-0.148439 0.500000 0.021455) 
            (-0.145480 0.500000 0.025987) 
            (-0.142434 0.500000 0.030540) 
            (-0.139294 0.500000 0.035120) 
            (-0.136058 0.500000 0.039728) 
            (-0.132728 0.500000 0.044363) 
            (-0.129305 0.500000 0.049011) 
            (-0.125773 0.500000 0.053684) 
            (-0.122154 0.500000 0.058379) 
            (-0.118429 0.500000 0.063071) 
            (-0.114595 0.500000 0.067790) 
            (-0.110661 0.500000 0.072514) 
            (-0.106619 0.500000 0.077249) 
            (-0.102457 0.500000 0.081982) 
            (-0.098188 0.500000 0.086726) 
            (-0.093806 0.500000 0.091460) 
            (-0.089304 0.500000 0.096191) 
            (-0.084681 0.500000 0.100919) 
            (-0.079938 0.500000 0.105643) 
            (-0.075151 0.500000 0.110299) 
            (-0.070305 0.500000 0.114901) 
            (-0.065414 0.500000 0.119448) 
            (-0.060479 0.500000 0.123929) 
            (-0.055498 0.500000 0.128369) 
            (-0.050479 0.500000 0.132764) 
            (-0.045422 0.500000 0.137098) 
            (-0.040325 0.500000 0.141401) 
            (-0.035190 0.500000 0.145658) 
            (-0.030030 0.500000 0.149870) 
            (-0.024824 0.500000 0.154042) 
        ) 
    spline 5 7 
        ( 
            (-0.014330 0.500000 0.162274)
            (-0.009034 0.500000 0.166339)
            (-0.003713 0.500000 0.170373)
            (0.001634 0.500000 0.174363)
            (0.007013 0.500000 0.178329)
            (0.012418 0.500000 0.182264)
            (0.017848 0.500000 0.186154)
            (0.023305 0.500000 0.190028)
            (0.028787 0.500000 0.193871)
            (0.034281 0.500000 0.197685)
            (0.039808 0.500000 0.201474)
            (0.045361 0.500000 0.205233)
            (0.050926 0.500000 0.208962)
            (0.056518 0.500000 0.212675)
            (0.062128 0.500000 0.216365)
            (0.067751 0.500000 0.220026)
            (0.073407 0.500000 0.223662)
            (0.079076 0.500000 0.227283)
            (0.084749 0.500000 0.230882)
            (0.090457 0.500000 0.234457)
            (0.096177 0.500000 0.238017)
            (0.101902 0.500000 0.241555)
            (0.107655 0.500000 0.245076)
            (0.113420 0.500000 0.248582)
            (0.119190 0.500000 0.252066)
            (0.124987 0.500000 0.255534)
            (0.130798 0.500000 0.258986)
            (0.136613 0.500000 0.262417)
            (0.142455 0.500000 0.265831)
            (0.148304 0.500000 0.269238)
            (0.154158 0.500000 0.272622)
            (0.160039 0.500000 0.275990)
            (0.165926 0.500000 0.279351)
            (0.171819 0.500000 0.282690)
            (0.177732 0.500000 0.286019)
            (0.183651 0.500000 0.289342)
            (0.189576 0.500000 0.292642)
            (0.195521 0.500000 0.295934)
            (0.201479 0.500000 0.299210)
            (0.207435 0.500000 0.302472)
            (0.213406 0.500000 0.305733)
            (0.219396 0.500000 0.308971)
            (0.225379 0.500000 0.312202)
            (0.231382 0.500000 0.315425)
            (0.237398 0.500000 0.318632)
            (0.243406 0.500000 0.321833)
            (0.249441 0.500000 0.325017)
            (0.255476 0.500000 0.328202)
            (0.261510 0.500000 0.331372)
            (0.267565 0.500000 0.334533)
            (0.273625 0.500000 0.337687)
            (0.279685 0.500000 0.340826)
            (0.285759 0.500000 0.343965)
            (0.291839 0.500000 0.347095)
            (0.297918 0.500000 0.350212)
            (0.304011 0.500000 0.353327)
            (0.310110 0.500000 0.356435)
            (0.316202 0.500000 0.359536)
            (0.322314 0.500000 0.362628)
            (0.328433 0.500000 0.365713)
            (0.334544 0.500000 0.368791)
            (0.340669 0.500000 0.371868)
            (0.346734 0.500000 0.374908)
            (0.352753 0.500000 0.377909)
            (0.358706 0.500000 0.380881)
            (0.364605 0.500000 0.383807)
            (0.370445 0.500000 0.386710)
            (0.376239 0.500000 0.389575)
            (0.381967 0.500000 0.392410)
            (0.387641 0.500000 0.395200)
            (0.393256 0.500000 0.397967)
            (0.398812 0.500000 0.400696)
            (0.404314 0.500000 0.403395)
            (0.409757 0.500000 0.406056)
            (0.415148 0.500000 0.408686)
            (0.420472 0.500000 0.411287)
            (0.425743 0.500000 0.413856)
            (0.430948 0.500000 0.416396)
            (0.436093 0.500000 0.418899)
            (0.441179 0.500000 0.421379)
            (0.446220 0.500000 0.423819)
            (0.451193 0.500000 0.426231)
            (0.456101 0.500000 0.428612)
            (0.460949 0.500000 0.430970)
            (0.465738 0.500000 0.433291)
            (0.470474 0.500000 0.435581)
            (0.475143 0.500000 0.437842)
            (0.479760 0.500000 0.440071)
            (0.484311 0.500000 0.442271)
            (0.488809 0.500000 0.444440)
            (0.493241 0.500000 0.446579)
            (0.497614 0.500000 0.448695)
            (0.501927 0.500000 0.450773)
            (0.506180 0.500000 0.452815)
            (0.510374 0.500000 0.454833)
            (0.514516 0.500000 0.456820)
            (0.518591 0.500000 0.458777)
            (0.522612 0.500000 0.460690)
            (0.526575 0.500000 0.462579)
            (0.530478 0.500000 0.464431)
            (0.534328 0.500000 0.466252)
            (0.538118 0.500000 0.468035)
            (0.541863 0.500000 0.469780)
            (0.545547 0.500000 0.471488)
            (0.549172 0.500000 0.473173)
            (0.552744 0.500000 0.474812)
            (0.556256 0.500000 0.476414)
            (0.559715 0.500000 0.477985)
            (0.563129 0.500000 0.479518)
            (0.566469 0.500000 0.481029)
        ) 
    spline 4 6 
        ( 
            (-0.188918 0.500000 -0.163507)
            (-0.187311 0.500000 -0.165018)
            (-0.185660 0.500000 -0.166426)
            (-0.184024 0.500000 -0.167691)
            (-0.182339 0.500000 -0.168874)
            (-0.180612 0.500000 -0.169984)
            (-0.178789 0.500000 -0.171052)
            (-0.176898 0.500000 -0.172076)
            (-0.174919 0.500000 -0.173065)
            (-0.172879 0.500000 -0.174003)
            (-0.170743 0.500000 -0.174900)
            (-0.168539 0.500000 -0.175753)
            (-0.166247 0.500000 -0.176571)
            (-0.163866 0.500000 -0.177354)
            (-0.161418 0.500000 -0.178094)
            (-0.158868 0.500000 -0.178799)
            (-0.156243 0.500000 -0.179469)
            (-0.153524 0.500000 -0.180112)
            (-0.150737 0.500000 -0.180710)
            (-0.147835 0.500000 -0.181291)
            (-0.144866 0.500000 -0.181827)
            (-0.141808 0.500000 -0.182329)
            (-0.138682 0.500000 -0.182787)
            (-0.135454 0.500000 -0.183212)
            (-0.132158 0.500000 -0.183592)
            (-0.128774 0.500000 -0.183938)
            (-0.125302 0.500000 -0.184249)
            (-0.121762 0.500000 -0.184516)
            (-0.118127 0.500000 -0.184742)
            (-0.114423 0.500000 -0.184924)
            (-0.110644 0.500000 -0.185056)
            (-0.106798 0.500000 -0.185144)
            (-0.102862 0.500000 -0.185183)
            (-0.098858 0.500000 -0.185178)
            (-0.094785 0.500000 -0.185116)
            (-0.090652 0.500000 -0.185002)
            (-0.086428 0.500000 -0.184839)
            (-0.082150 0.500000 -0.184617)
            (-0.077796 0.500000 -0.184345)
            (-0.073380 0.500000 -0.184007)
            (-0.068903 0.500000 -0.183618)
            (-0.064349 0.500000 -0.183165)
            (-0.059740 0.500000 -0.182652)
            (-0.055076 0.500000 -0.182081)
            (-0.050329 0.500000 -0.181453)
            (-0.045540 0.500000 -0.180750)
            (-0.040675 0.500000 -0.179984)
            (-0.035761 0.500000 -0.179150)
            (-0.030799 0.500000 -0.178250)
            (-0.025773 0.500000 -0.177270)
            (-0.020698 0.500000 -0.176223)
            (-0.015574 0.500000 -0.175096)
            (-0.010401 0.500000 -0.173887)
            (-0.005191 0.500000 -0.172597)
            (0.000068 0.500000 -0.171226)
            (0.005370 0.500000 -0.169766)
            (0.010722 0.500000 -0.168226)
            (0.016110 0.500000 -0.166589)
            (0.021535 0.500000 -0.164870)
            (0.026989 0.500000 -0.163048)
            (0.032487 0.500000 -0.161136)
            (0.038015 0.500000 -0.159122)
            (0.043566 0.500000 -0.157009)
            (0.049155 0.500000 -0.154787)
            (0.054754 0.500000 -0.152452)
            (0.060363 0.500000 -0.150004)
            (0.066003 0.500000 -0.147438)
            (0.071640 0.500000 -0.144744)
            (0.077289 0.500000 -0.141923)
            (0.082935 0.500000 -0.138961)
            (0.088580 0.500000 -0.135856)
            (0.094209 0.500000 -0.132608)
            (0.099824 0.500000 -0.129202)
            (0.105411 0.500000 -0.125624)
            (0.110977 0.500000 -0.121880)
            (0.116438 0.500000 -0.118028)
            (0.121812 0.500000 -0.114055)
            (0.127082 0.500000 -0.109959)
            (0.132248 0.500000 -0.105755)
            (0.137332 0.500000 -0.101437)
            (0.142325 0.500000 -0.097011)
            (0.147222 0.500000 -0.092485)
            (0.152042 0.500000 -0.087853)
            (0.156779 0.500000 -0.083121)
            (0.161424 0.500000 -0.078297)
            (0.166000 0.500000 -0.073373)
        ) 
    spline 6 7 
        ( 
            (0.174945 0.500000 -0.063296)
            (0.179322 0.500000 -0.058135)
            (0.183628 0.500000 -0.052890)
            (0.187875 0.500000 -0.047590)
            (0.192072 0.500000 -0.042215)
            (0.196211 0.500000 -0.036771)
            (0.200290 0.500000 -0.031272)
            (0.204333 0.500000 -0.025713)
            (0.208330 0.500000 -0.020100)
            (0.212282 0.500000 -0.014448)
            (0.216196 0.500000 -0.008736)
            (0.220071 0.500000 -0.002978)
            (0.223913 0.500000 0.002805)
            (0.227730 0.500000 0.008632)
            (0.231522 0.500000 0.014490)
            (0.235274 0.500000 0.020379)
            (0.239008 0.500000 0.026306)
            (0.242716 0.500000 0.032263)
            (0.246391 0.500000 0.038245)
            (0.250055 0.500000 0.044256)
            (0.253705 0.500000 0.050282)
            (0.257322 0.500000 0.056333)
            (0.260934 0.500000 0.062405)
            (0.264533 0.500000 0.068493)
            (0.268111 0.500000 0.074589)
            (0.271684 0.500000 0.080707)
            (0.275245 0.500000 0.086841)
            (0.278798 0.500000 0.092968)
            (0.282339 0.500000 0.099125)
            (0.285873 0.500000 0.105289)
            (0.289400 0.500000 0.111447)
            (0.292922 0.500000 0.117626)
            (0.296438 0.500000 0.123813)
            (0.299939 0.500000 0.130002)
            (0.303441 0.500000 0.136204)
            (0.306944 0.500000 0.142407)
            (0.310439 0.500000 0.148603)
            (0.313935 0.500000 0.154813)
            (0.317438 0.500000 0.161015)
            (0.320926 0.500000 0.167219)
            (0.324429 0.500000 0.173422)
            (0.327931 0.500000 0.179624)
            (0.331432 0.500000 0.185813)
            (0.334935 0.500000 0.192015)
            (0.338450 0.500000 0.198202)
            (0.341965 0.500000 0.204375)
            (0.345493 0.500000 0.210547)
            (0.349028 0.500000 0.216711)
            (0.352561 0.500000 0.222862)
            (0.356109 0.500000 0.229010)
            (0.359669 0.500000 0.235144)
            (0.363235 0.500000 0.241256)
            (0.366814 0.500000 0.247366)
            (0.370413 0.500000 0.253454)
            (0.374017 0.500000 0.259520)
            (0.377648 0.500000 0.265569)
            (0.381292 0.500000 0.271603)
            (0.384948 0.500000 0.277608)
            (0.388630 0.500000 0.283596)
            (0.392332 0.500000 0.289561)
            (0.396052 0.500000 0.295489)
            (0.399799 0.500000 0.301400)
            (0.403537 0.500000 0.307213)
            (0.407262 0.500000 0.312949)
            (0.410984 0.500000 0.318578)
            (0.414691 0.500000 0.324117)
            (0.418390 0.500000 0.329571)
            (0.422089 0.500000 0.334933)
            (0.425786 0.500000 0.340189)
            (0.429467 0.500000 0.345354)
            (0.433148 0.500000 0.350426)
            (0.436826 0.500000 0.355392)
            (0.440503 0.500000 0.360266)
            (0.444166 0.500000 0.365050)
            (0.447827 0.500000 0.369740)
            (0.451486 0.500000 0.374325)
            (0.455138 0.500000 0.378825)
            (0.458781 0.500000 0.383227)
            (0.462415 0.500000 0.387530)
            (0.466049 0.500000 0.391740)
            (0.469681 0.500000 0.395859)
            (0.473299 0.500000 0.399886)
            (0.476914 0.500000 0.403808)
            (0.480522 0.500000 0.407644)
            (0.484121 0.500000 0.411382)
            (0.487713 0.500000 0.415036)
            (0.491290 0.500000 0.418599)
            (0.494859 0.500000 0.422077)
            (0.498414 0.500000 0.425464)
            (0.501961 0.500000 0.428766)
            (0.505486 0.500000 0.431986)
            (0.509004 0.500000 0.435121)
            (0.512507 0.500000 0.438164)
            (0.515989 0.500000 0.441125)
            (0.519457 0.500000 0.444009)
            (0.522917 0.500000 0.446808)
            (0.526356 0.500000 0.449523)
            (0.529780 0.500000 0.452148)
            (0.533196 0.500000 0.454689)
            (0.536591 0.500000 0.457146)
            (0.539972 0.500000 0.459526)
            (0.543338 0.500000 0.461815)
            (0.546697 0.500000 0.464020)
            (0.550040 0.500000 0.466133)
            (0.553370 0.500000 0.468170)
            (0.556678 0.500000 0.470124)
            (0.559965 0.500000 0.471994)
            (0.563238 0.500000 0.473788)
            (0.566497 0.500000 0.475504)
            (0.569735 0.500000 0.477137)
        ) 
    spline 16 17 
        ( 
            (-0.193880 -0.500000 -0.157594)
            (-0.195108 -0.500000 -0.155726)
            (-0.196169 -0.500000 -0.153901)
            (-0.197053 -0.500000 -0.152163)
            (-0.197830 -0.500000 -0.150413)
            (-0.198494 -0.500000 -0.148672)
            (-0.199094 -0.500000 -0.146852)
            (-0.199627 -0.500000 -0.144989)
            (-0.200103 -0.500000 -0.143052)
            (-0.200519 -0.500000 -0.141063)
            (-0.200883 -0.500000 -0.138980)
            (-0.201192 -0.500000 -0.136838)
            (-0.201452 -0.500000 -0.134615)
            (-0.201662 -0.500000 -0.132311)
            (-0.201811 -0.500000 -0.129955)
            (-0.201909 -0.500000 -0.127505)
            (-0.201946 -0.500000 -0.125003)
            (-0.201933 -0.500000 -0.122421)
            (-0.201858 -0.500000 -0.119787)
            (-0.201727 -0.500000 -0.117066)
            (-0.201540 -0.500000 -0.114285)
            (-0.201291 -0.500000 -0.111439)
            (-0.200981 -0.500000 -0.108542)
            (-0.200607 -0.500000 -0.105565)
            (-0.200172 -0.500000 -0.102537)
            (-0.199674 -0.500000 -0.099443)
            (-0.199114 -0.500000 -0.096284)
            (-0.198492 -0.500000 -0.093073)
            (-0.197794 -0.500000 -0.089798)
            (-0.197041 -0.500000 -0.086464)
            (-0.196212 -0.500000 -0.083080)
            (-0.195323 -0.500000 -0.079644)
            (-0.194356 -0.500000 -0.076144)
            (-0.193322 -0.500000 -0.072600)
            (-0.192219 -0.500000 -0.068999)
            (-0.191049 -0.500000 -0.065353)
            (-0.189795 -0.500000 -0.061651)
            (-0.188480 -0.500000 -0.057898)
            (-0.187083 -0.500000 -0.054102)
            (-0.185617 -0.500000 -0.050248)
            (-0.184071 -0.500000 -0.046366)
            (-0.182448 -0.500000 -0.042420)
            (-0.180757 -0.500000 -0.038429)
            (-0.178986 -0.500000 -0.034411)
            (-0.177125 -0.500000 -0.030343)
            (-0.175197 -0.500000 -0.026231)
            (-0.173179 -0.500000 -0.022071)
            (-0.171081 -0.500000 -0.017882)
            (-0.168908 -0.500000 -0.013657)
            (-0.166646 -0.500000 -0.009383)
            (-0.164304 -0.500000 -0.005081)
            (-0.161873 -0.500000 -0.000744)
            (-0.159360 -0.500000 0.003636)
            (-0.156767 -0.500000 0.008044)
            (-0.154079 -0.500000 0.012479)
            (-0.151303 -0.500000 0.016950)
            (-0.148439 -0.500000 0.021455)
            (-0.145480 -0.500000 0.025987)
            (-0.142434 -0.500000 0.030540)
            (-0.139294 -0.500000 0.035120)
            (-0.136058 -0.500000 0.039728)
            (-0.132728 -0.500000 0.044363)
            (-0.129305 -0.500000 0.049011)
            (-0.125773 -0.500000 0.053684)
            (-0.122154 -0.500000 0.058379)
            (-0.118429 -0.500000 0.063071)
            (-0.114595 -0.500000 0.067790)
            (-0.110661 -0.500000 0.072514)
            (-0.106619 -0.500000 0.077249)
            (-0.102457 -0.500000 0.081982)
            (-0.098188 -0.500000 0.086726)
            (-0.093806 -0.500000 0.091460)
            (-0.089304 -0.500000 0.096191)
            (-0.084681 -0.500000 0.100919)
            (-0.079938 -0.500000 0.105643)
            (-0.075151 -0.500000 0.110299)
            (-0.070305 -0.500000 0.114901)
            (-0.065414 -0.500000 0.119448)
            (-0.060479 -0.500000 0.123929)
            (-0.055498 -0.500000 0.128369)
            (-0.050479 -0.500000 0.132764)
            (-0.045422 -0.500000 0.137098)
            (-0.040325 -0.500000 0.141401)
            (-0.035190 -0.500000 0.145658)
            (-0.030030 -0.500000 0.149870)
            (-0.024824 -0.500000 0.154042)
        ) 
    spline 17 19 
        ( 
            (-0.014330 -0.500000 0.162274)
            (-0.009034 -0.500000 0.166339)
            (-0.003713 -0.500000 0.170373)
            (0.001634 -0.500000 0.174363)
            (0.007013 -0.500000 0.178329)
            (0.012418 -0.500000 0.182264)
            (0.017848 -0.500000 0.186154)
            (0.023305 -0.500000 0.190028)
            (0.028787 -0.500000 0.193871)
            (0.034281 -0.500000 0.197685)
            (0.039808 -0.500000 0.201474)
            (0.045361 -0.500000 0.205233)
            (0.050926 -0.500000 0.208962)
            (0.056518 -0.500000 0.212675)
            (0.062128 -0.500000 0.216365)
            (0.067751 -0.500000 0.220026)
            (0.073407 -0.500000 0.223662)
            (0.079076 -0.500000 0.227283)
            (0.084749 -0.500000 0.230882)
            (0.090457 -0.500000 0.234457)
            (0.096177 -0.500000 0.238017)
            (0.101902 -0.500000 0.241555)
            (0.107655 -0.500000 0.245076)
            (0.113420 -0.500000 0.248582)
            (0.119190 -0.500000 0.252066)
            (0.124987 -0.500000 0.255534)
            (0.130798 -0.500000 0.258986)
            (0.136613 -0.500000 0.262417)
            (0.142455 -0.500000 0.265831)
            (0.148304 -0.500000 0.269238)
            (0.154158 -0.500000 0.272622)
            (0.160039 -0.500000 0.275990)
            (0.165926 -0.500000 0.279351)
            (0.171819 -0.500000 0.282690)
            (0.177732 -0.500000 0.286019)
            (0.183651 -0.500000 0.289342)
            (0.189576 -0.500000 0.292642)
            (0.195521 -0.500000 0.295934)
            (0.201479 -0.500000 0.299210)
            (0.207435 -0.500000 0.302472)
            (0.213406 -0.500000 0.305733)
            (0.219396 -0.500000 0.308971)
            (0.225379 -0.500000 0.312202)
            (0.231382 -0.500000 0.315425)
            (0.237398 -0.500000 0.318632)
            (0.243406 -0.500000 0.321833)
            (0.249441 -0.500000 0.325017)
            (0.255476 -0.500000 0.328202)
            (0.261510 -0.500000 0.331372)
            (0.267565 -0.500000 0.334533)
            (0.273625 -0.500000 0.337687)
            (0.279685 -0.500000 0.340826)
            (0.285759 -0.500000 0.343965)
            (0.291839 -0.500000 0.347095)
            (0.297918 -0.500000 0.350212)
            (0.304011 -0.500000 0.353327)
            (0.310110 -0.500000 0.356435)
            (0.316202 -0.500000 0.359536)
            (0.322314 -0.500000 0.362628)
            (0.328433 -0.500000 0.365713)
            (0.334544 -0.500000 0.368791)
            (0.340669 -0.500000 0.371868)
            (0.346734 -0.500000 0.374908)
            (0.352753 -0.500000 0.377909)
            (0.358706 -0.500000 0.380881)
            (0.364605 -0.500000 0.383807)
            (0.370445 -0.500000 0.386710)
            (0.376239 -0.500000 0.389575)
            (0.381967 -0.500000 0.392410)
            (0.387641 -0.500000 0.395200)
            (0.393256 -0.500000 0.397967)
            (0.398812 -0.500000 0.400696)
            (0.404314 -0.500000 0.403395)
            (0.409757 -0.500000 0.406056)
            (0.415148 -0.500000 0.408686)
            (0.420472 -0.500000 0.411287)
            (0.425743 -0.500000 0.413856)
            (0.430948 -0.500000 0.416396)
            (0.436093 -0.500000 0.418899)
            (0.441179 -0.500000 0.421379)
            (0.446220 -0.500000 0.423819)
            (0.451193 -0.500000 0.426231)
            (0.456101 -0.500000 0.428612)
            (0.460949 -0.500000 0.430970)
            (0.465738 -0.500000 0.433291)
            (0.470474 -0.500000 0.435581)
            (0.475143 -0.500000 0.437842)
            (0.479760 -0.500000 0.440071)
            (0.484311 -0.500000 0.442271)
            (0.488809 -0.500000 0.444440)
            (0.493241 -0.500000 0.446579)
            (0.497614 -0.500000 0.448695)
            (0.501927 -0.500000 0.450773)
            (0.506180 -0.500000 0.452815)
            (0.510374 -0.500000 0.454833)
            (0.514516 -0.500000 0.456820)
            (0.518591 -0.500000 0.458777)
            (0.522612 -0.500000 0.460690)
            (0.526575 -0.500000 0.462579)
            (0.530478 -0.500000 0.464431)
            (0.534328 -0.500000 0.466252)
            (0.538118 -0.500000 0.468035)
            (0.541863 -0.500000 0.469780)
            (0.545547 -0.500000 0.471488)
            (0.549172 -0.500000 0.473173)
            (0.552744 -0.500000 0.474812)
            (0.556256 -0.500000 0.476414)
            (0.559715 -0.500000 0.477985)
            (0.563129 -0.500000 0.479518)
            (0.566469 -0.500000 0.481029)
        ) 
    spline 16 18 
        ( 
            (-0.188918 -0.500000 -0.163507)
            (-0.187311 -0.500000 -0.165018)
            (-0.185660 -0.500000 -0.166426)
            (-0.184024 -0.500000 -0.167691)
            (-0.182339 -0.500000 -0.168874)
            (-0.180612 -0.500000 -0.169984)
            (-0.178789 -0.500000 -0.171052)
            (-0.176898 -0.500000 -0.172076)
            (-0.174919 -0.500000 -0.173065)
            (-0.172879 -0.500000 -0.174003)
            (-0.170743 -0.500000 -0.174900)
            (-0.168539 -0.500000 -0.175753)
            (-0.166247 -0.500000 -0.176571)
            (-0.163866 -0.500000 -0.177354)
            (-0.161418 -0.500000 -0.178094)
            (-0.158868 -0.500000 -0.178799)
            (-0.156243 -0.500000 -0.179469)
            (-0.153524 -0.500000 -0.180112)
            (-0.150737 -0.500000 -0.180710)
            (-0.147835 -0.500000 -0.181291)
            (-0.144866 -0.500000 -0.181827)
            (-0.141808 -0.500000 -0.182329)
            (-0.138682 -0.500000 -0.182787)
            (-0.135454 -0.500000 -0.183212)
            (-0.132158 -0.500000 -0.183592)
            (-0.128774 -0.500000 -0.183938)
            (-0.125302 -0.500000 -0.184249)
            (-0.121762 -0.500000 -0.184516)
            (-0.118127 -0.500000 -0.184742)
            (-0.114423 -0.500000 -0.184924)
            (-0.110644 -0.500000 -0.185056)
            (-0.106798 -0.500000 -0.185144)
            (-0.102862 -0.500000 -0.185183)
            (-0.098858 -0.500000 -0.185178)
            (-0.094785 -0.500000 -0.185116)
            (-0.090652 -0.500000 -0.185002)
            (-0.086428 -0.500000 -0.184839)
            (-0.082150 -0.500000 -0.184617)
            (-0.077796 -0.500000 -0.184345)
            (-0.073380 -0.500000 -0.184007)
            (-0.068903 -0.500000 -0.183618)
            (-0.064349 -0.500000 -0.183165)
            (-0.059740 -0.500000 -0.182652)
            (-0.055076 -0.500000 -0.182081)
            (-0.050329 -0.500000 -0.181453)
            (-0.045540 -0.500000 -0.180750)
            (-0.040675 -0.500000 -0.179984)
            (-0.035761 -0.500000 -0.179150)
            (-0.030799 -0.500000 -0.178250)
            (-0.025773 -0.500000 -0.177270)