/*--------------------------------*- C++ -*----------------------------------*\
  =========                 |				
  \\      /  F ield         | OpenFOAM: The Open Source CFD Toolbox
   \\    /   O peration     | Website:  https://openfoam.org
    \\  /    A nd           | Version:  9                                   	
     \\/     M anipulation  |
\*---------------------------------------------------------------------------*/
FoamFile
{
version     2.0;
    format      ascii;
    class       dictionary;
    object      topoSetDict;
}
// * * * * * * * * * * * * * * * * * * * * * * * * * * * * * * * * * * * * * //

actions
(

/////////////////////////////////////////////////////////////////////////////
    {
        name    c1;
        type    cellSet;
        action  new;
        source  boxToCell;
        sourceInfo
        {
            //box (-3 -3 -10) (4 3 10);
            box (-5 -3 -10) (20 3 10);
        }
    }
/////////////////////////////////////////////////////////////////////////////

/////////////////////////////////////////////////////////////////////////////
    {
        name    c2;
        type    cellSet;
        action  new;
        source  boxToCell;
        sourceInfo
        {
            box (-2 -2 -10) (3 2 10);
        }
    }
/////////////////////////////////////////////////////////////////////////////

/////////////////////////////////////////////////////////////////////////////
    {
        name    c3;
        type    cellSet;
        action  new;
        source  boxToCell;
        sourceInfo
        {
            box (-1 -1 -10) (2 1 10);
        }
    }
/////////////////////////////////////////////////////////////////////////////

);

// ************************************************************************* //
